FoamFile
{
    version     2.0;
    format      ascii;
    class       dictionary;
    location    "system";
    object      preciceDict;
}

preciceConfig "../precice-config.xml";

participant Beam-Left;

modules (FSI);

interfaces
{
    Interface1
    {
        mesh              Beam-Left-Mesh;
        patches           (interface);
        locations         faceCenters;
        
        writeData
        (
            DISPLACEMENTS
        );
    };
};

FSI
{
    solverType solid;

    // Name of cell displacement field
    nameCellDisplacement D;

    // The solidDisplacementFoam does not have a point displacement field so we
    // we use the special name "unused", which tells the adapter that it is not
    // used
    namePointDisplacement unused;
}
