FoamFile
{
    version     2.0;
    format      ascii;
    class       volScalarField;
    object      T;
}
// * * * * * * * * * * * * * * * * * * * * * * * * * * * * * * * * * * * * * //

dimensions      [0 0 0 1 0 0 0];

internalField   uniform 300;

boundaryField
{
    outerContour
    {
        type            fixedValue;
        value           uniform 300;
    }

    structureWall
    {
        type            fixedValue;
        value           uniform 300;
    }
    
    frontAndBack
    {
        type            empty;
    }
}
