FoamFile
{
    version     2.0;
    format      ascii;
    class       dictionary;
    object      controlDict;
}
// * * * * * * * * * * * * * * * * * * * * * * * * * * * * * * * * * * * * * //

application     rhoPimpleFoam;

startFrom       startTime;

startTime       0;

stopAt          endTime;

endTime         0.02;

deltaT          0.00001;

writeControl    adjustableRunTime;

writeInterval   0.002;

purgeWrite      0;

writeFormat     ascii;

writePrecision  16;

writeCompression off;

timeFormat      general;

timePrecision   6;

runTimeModifiable true;

