FoamFile
{
    version     2.0;
    format      ascii;
    class       dictionary;
    object      fvSchemes;
}
// * * * * * * * * * * * * * * * * * * * * * * * * * * * * * * * * * * * * * //

ddtSchemes
{
    default         CrankNicolson 1;
}

gradSchemes
{
    default         none;

    grad(U)         cellMDLimited leastSquares 1;
    grad(p)         cellMDLimited leastSquares 1;
    grad(e)         cellMDLimited leastSquares 1;
    grad(K)         cellMDLimited leastSquares 1;
}

divSchemes
{
    default         none;

    div(phi,U)      Gauss limitedLinearV 1;

    div(phi,e)      Gauss limitedLinear 1;
    div(phi,K)      Gauss limitedLinear 1;
    div(phiv,p)     Gauss limitedLinear 1;

    div(((rho*nuEff)*dev2(T(grad(U))))) Gauss linear;
}

laplacianSchemes
{
    default         Gauss linear corrected;
}

interpolationSchemes
{
    default         linear;
}

snGradSchemes
{
    default         corrected;
}


// ************************************************************************* //
