FoamFile
{
    version     2.0;
    format      ascii;
    class       volVectorField;
    location    "0";
    object      D;
}

dimensions      [0 1 0 0 0 0 0];

internalField   uniform (0 0 0);

boundaryField
{
    interface
    {
        type            tractionDisplacement;
        traction        uniform (0 0 0);
        pressure        uniform 0;
        value           uniform (0 0 0);
    }
    
    fixedEnd
    {
        type            fixedValue;
        value           uniform (0 0 0);
    }

    lateralWalls
    {
        type            tractionDisplacement;
        traction        uniform (0 0 0);
        pressure        uniform 0;
        value           uniform (0 0 0);
    }

    loadedSurface
    {
        type            tractionDisplacement;
        traction        uniform (0 0 0);
        pressure        uniform 1828570;
        value           uniform (0 0 0);
    }
}


