/*--------------------------------*- C++ -*----------------------------------*\
| =========                 |                                                 |
| \\      /  F ield         | OpenFOAM: The Open Source CFD Toolbox           |
|  \\    /   O peration     | Version:  2406                                  |
|   \\  /    A nd           | Website:  www.openfoam.com                      |
|    \\/     M anipulation  |                                                 |
\*---------------------------------------------------------------------------*/
FoamFile
{
    version     2.0;
    format      ascii;
    arch        "LSB;label=32;scalar=64";
    class       polyBoundaryMesh;
    location    "constant/polyMesh";
    object      boundary;
}
// * * * * * * * * * * * * * * * * * * * * * * * * * * * * * * * * * * * * * //

7
(
    leftWall
    {
        type            wall;
        inGroups        1(wall);
        nFaces          180;
        startFace       48825;
    }
    rightWall
    {
        type            wall;
        inGroups        1(wall);
        nFaces          180;
        startFace       49005;
    }
    lowerWall
    {
        type            wall;
        inGroups        1(wall);
        nFaces          306;
        startFace       49185;
    }
    upperWall
    {
        type            wall;
        inGroups        1(wall);
        nFaces          315;
        startFace       49491;
    }
    interface
    {
        type            wall;
        inGroups        1(wall);
        nFaces          249;
        startFace       49806;
    }
    back
    {
        type            symmetryPlane;
        inGroups        1(symmetryPlane);
        nFaces          6180;
        startFace       50055;
    }
    front
    {
        type            symmetryPlane;
        inGroups        1(symmetryPlane);
        nFaces          6180;
        startFace       56235;
    }
)

// ************************************************************************* //
