FoamFile
{
    version     2.0;
    format      ascii;
    class       dictionary;
    object      controlDict;
}
// * * * * * * * * * * * * * * * * * * * * * * * * * * * * * * * * * * * * * //

application     rhoPimpleFoam;

startFrom       startTime;

startTime       0;

stopAt          endTime;

endTime         0.02;

deltaT          0.000001;

writeControl    runTime;

writeInterval   0.002;

purgeWrite      0;

writeFormat     ascii;

writePrecision  16;

writeCompression off;

timeFormat      general;

timePrecision   8;

functions
{
    preCICE_Adapter
    {
        type preciceAdapterFunctionObject;
        libs ("libpreciceAdapterFunctionObject.so");
    }
}
