/*--------------------------------*- C++ -*----------------------------------*\
| =========                 |                                                 |
| \\      /  F ield         | OpenFOAM: The Open Source CFD Toolbox           |
|  \\    /   O peration     | Version:  2406                                  |
|   \\  /    A nd           | Website:  www.openfoam.com                      |
|    \\/     M anipulation  |                                                 |
\*---------------------------------------------------------------------------*/
FoamFile
{
    version     2.0;
    format      ascii;
    arch        "LSB;label=32;scalar=64";
    class       polyBoundaryMesh;
    location    "constant/polyMesh";
    object      boundary;
}
// * * * * * * * * * * * * * * * * * * * * * * * * * * * * * * * * * * * * * //

7
(
    leftWall
    {
        type            wall;
        inGroups        1(wall);
        nFaces          360;
        startFace       188880;
    }
    rightWall
    {
        type            wall;
        inGroups        1(wall);
        nFaces          360;
        startFace       189240;
    }
    lowerWall
    {
        type            wall;
        inGroups        1(wall);
        nFaces          591;
        startFace       189600;
    }
    upperWall
    {
        type            wall;
        inGroups        1(wall);
        nFaces          600;
        startFace       190191;
    }
    interface
    {
        type            wall;
        inGroups        1(wall);
        nFaces          489;
        startFace       190791;
    }
    back
    {
        type            symmetryPlane;
        inGroups        1(symmetryPlane);
        nFaces          23760;
        startFace       191280;
    }
    front
    {
        type            symmetryPlane;
        inGroups        1(symmetryPlane);
        nFaces          23760;
        startFace       215040;
    }
)

// ************************************************************************* //
