FoamFile
{
    version     2.0;
    format      ascii;
    class       dictionary;
    location    "constant";
    object      mechanicalProperties;
}

rho
{
    type        uniform;
    value       7800;
}

nu
{
    type        uniform;
    value       0.3;
}

E
{
    type        uniform;
    value       2.1e+11;
}

planeStress     no;

